256
13.18420 13.18420 13.18420 90.0 90.0 90.0
La    1.648025    0.000000    3.296050
La   11.536175    0.000000    9.888150
La    4.944075    0.000000    9.888150
La    8.240126    0.000000    3.296050
La   11.536175    6.592100    3.296050
La    1.648025    6.592100    9.888150
La    8.240126    6.592100    9.888150
La    4.944075    6.592100    3.296050
La    3.296050    1.648025    0.000000
La    9.888150   11.536175    0.000000
La    9.888150    4.944075    0.000000
La    3.296050    8.240126    0.000000
La    3.296050   11.536175    6.592100
La    9.888150    1.648025    6.592100
La    9.888150    8.240126    6.592100
La    3.296050    4.944075    6.592100
La    0.000000    3.296050    1.648025
La    0.000000    9.888150   11.536175
La    0.000000    9.888150    4.944075
La    0.000000    3.296050    8.240126
La    6.592100    3.296050   11.536175
La    6.592100    9.888150    1.648025
La    6.592100    9.888150    8.240126
La    6.592100    3.296050    4.944075
Zr    0.000000    0.000000    0.000000
Zr    6.592100    0.000000    6.592100
Zr    0.000000    6.592100    6.592100
Zr    6.592100    6.592100    0.000000
Zr    9.888150    3.296050    3.296050
Zr    3.296050    9.888150    9.888150
Zr    9.888150    9.888150    9.888150
Zr    3.296050    3.296050    3.296050
Zr    3.296050    3.296050    9.888150
Zr    9.888150    9.888150    3.296050
Zr    3.296050    9.888150    3.296050
Zr    9.888150    3.296050    9.888150
Zr    6.592100    6.592100    6.592100
Zr    0.000000    6.592100    0.000000
Zr    6.592100    0.000000    0.000000
Zr    0.000000    0.000000    6.592100
Li    4.944075    0.000000    3.296050
Li    8.240126    0.000000    9.888150
Li    1.648025    0.000000    9.888150
Li   11.536175    0.000000    3.296050
Li    8.240126    6.592100    3.296050
Li    4.944075    6.592100    9.888150
Li   11.536175    6.592100    9.888150
Li    1.648025    6.592100    3.296050
Li    3.296050    4.944075    0.000000
Li    9.888150    8.240126    0.000000
Li    9.888150    1.648025    0.000000
Li    3.296050   11.536175    0.000000
Li    3.296050    8.240126    6.592100
Li    9.888150    4.944075    6.592100
Li    9.888150   11.536175    6.592100
Li    3.296050    1.648025    6.592100
Li    0.000000    3.296050    4.944075
Li    0.000000    9.888150    8.240126
Li    0.000000    9.888150    1.648025
Li    0.000000    3.296050   11.536175
Li    6.592100    3.296050    8.240126
Li    6.592100    9.888150    4.944075
Li    6.592100    9.888150   11.536175
Li    6.592100    3.296050    1.648025
Li    1.261728    2.460172    5.572961
Li   11.922472   10.724029    7.611239
Li    5.330372   10.724029   12.165061
Li    7.853828    2.460172    1.019139
Li   11.922472    9.052272    1.019139
Li    1.261728    4.131928   12.165061
Li    7.853828    4.131928    7.611239
Li    5.330372    9.052272    5.572961
Li    5.572961    1.261728    2.460172
Li    7.611239   11.922472   10.724029
Li   12.165061    5.330372   10.724029
Li    1.019139    7.853828    2.460172
Li    1.019139   11.922472    9.052272
Li   12.165061    1.261728    4.131928
Li    7.611239    7.853828    4.131928
Li    5.572961    5.330372    9.052272
Li    2.460172    5.572961    1.261728
Li   10.724029    7.611239   11.922472
Li   10.724029   12.165061    5.330372
Li    2.460172    1.019139    7.853828
Li    9.052272    1.019139   11.922472
Li    4.131928   12.165061    1.261728
Li    4.131928    7.611239    7.853828
Li    9.052272    5.572961    5.330372
Li   12.348322    4.557778   10.907290
Li    0.835878    8.626422    2.276911
Li    7.427979    8.626422    4.315189
Li    5.756222    4.557778    8.869011
Li    5.756222    2.034322    2.276911
Li    7.427979   11.149879   10.907290
Li    0.835878   11.149879    8.869011
Li   12.348322    2.034322    4.315189
Li   11.149879    8.869011    0.835878
Li    2.034322    4.315189   12.348322
Li    2.034322    2.276911    5.756222
Li   11.149879   10.907290    7.427979
Li    8.626422    4.315189    7.427979
Li    4.557778    8.869011    5.756222
Li    4.557778   10.907290   12.348322
Li    8.626422    2.276911    0.835878
Li    2.276911    5.756222    2.034322
Li   10.907290    7.427979   11.149879
Li    8.869011    0.835878   11.149879
Li    4.315189   12.348322    2.034322
Li   10.907290   12.348322    4.557778
Li    2.276911    0.835878    8.626422
Li    4.315189    7.427979    8.626422
Li    8.869011    5.756222    4.557778
Li    7.853828    9.052272   12.165061
Li    5.330372    4.131928    1.019139
Li   11.922472    4.131928    5.572961
Li    1.261728    9.052272    7.611239
Li    5.330372    2.460172    7.611239
Li    7.853828   10.724029    5.572961
Li    1.261728   10.724029    1.019139
Li   11.922472    2.460172   12.165061
Li   12.165061    7.853828    9.052272
Li    1.019139    5.330372    4.131928
Li    5.572961   11.922472    4.131928
Li    7.611239    1.261728    9.052272
Li    7.611239    5.330372    2.460172
Li    5.572961    7.853828   10.724029
Li    1.019139    1.261728   10.724029
Li   12.165061   11.922472    2.460172
Li    9.052272   12.165061    7.853828
Li    4.131928    1.019139    5.330372
Li    4.131928    5.572961   11.922472
Li    9.052272    7.611239    1.261728
Li    2.460172    7.611239    5.330372
Li   10.724029    5.572961    7.853828
Li   10.724029    1.019139    1.261728
Li    2.460172   12.165061   11.922472
Li    5.756222   11.149879    4.315189
Li    7.427979    2.034322    8.869011
Li    0.835878    2.034322   10.907290
Li   12.348322   11.149879    2.276911
Li   12.348322    8.626422    8.869011
Li    0.835878    4.557778    4.315189
Li    7.427979    4.557778    2.276911
Li    5.756222    8.626422   10.907290
Li    4.557778    2.276911    7.427979
Li    8.626422   10.907290    5.756222
Li    8.626422    8.869011   12.348322
Li    4.557778    4.315189    0.835878
Li    2.034322   10.907290    0.835878
Li   11.149879    2.276911   12.348322
Li   11.149879    4.315189    5.756222
Li    2.034322    8.869011    7.427979
Li    8.869011   12.348322    8.626422
Li    4.315189    0.835878    4.557778
Li    2.276911    7.427979    4.557778
Li   10.907290    5.756222    8.626422
Li    4.315189    5.756222   11.149879
Li    8.869011    7.427979    2.034322
Li   10.907290    0.835878    2.034322
Li    2.276911   12.348322   11.149879
 O    1.329627    2.605066    3.701596
 O   11.854574   10.579134    9.482604
 O    5.262474   10.579134   10.293696
 O    7.921727    2.605066    2.890504
 O   11.854574    9.197166    2.890504
 O    1.329627    3.987034   10.293696
 O    7.921727    3.987034    9.482604
 O    5.262474    9.197166    3.701596
 O    3.701596    1.329627    2.605066
 O    9.482604   11.854574   10.579134
 O   10.293696    5.262474   10.579134
 O    2.890504    7.921727    2.605066
 O    2.890504   11.854574    9.197166
 O   10.293696    1.329627    3.987034
 O    9.482604    7.921727    3.987034
 O    3.701596    5.262474    9.197166
 O    2.605066    3.701596    1.329627
 O   10.579134    9.482604   11.854574
 O   10.579134   10.293696    5.262474
 O    2.605066    2.890504    7.921727
 O    9.197166    2.890504   11.854574
 O    3.987034   10.293696    1.329627
 O    3.987034    9.482604    7.921727
 O    9.197166    3.701596    5.262474
 O   12.493217    4.625677   12.778654
 O    0.690984    8.558524    0.405547
 O    7.283084    8.558524    6.186554
 O    5.901116    4.625677    6.997646
 O    5.901116    1.966424    0.405547
 O    7.283084   11.217776   12.778654
 O    0.690984   11.217776    6.997646
 O   12.493217    1.966424    6.186554
 O   11.217776    6.997646    0.690984
 O    1.966424    6.186554   12.493217
 O    1.966424    0.405547    5.901116
 O   11.217776   12.778654    7.283084
 O    8.558524    6.186554    7.283084
 O    4.625677    6.997646    5.901116
 O    4.625677   12.778654   12.493217
 O    8.558524    0.405547    0.690984
 O    0.405547    5.901116    1.966424
 O   12.778654    7.283084   11.217776
 O    6.997646    0.690984   11.217776
 O    6.186554   12.493217    1.966424
 O   12.778654   12.493217    4.625677
 O    0.405547    0.690984    8.558524
 O    6.186554    7.283084    8.558524
 O    6.997646    5.901116    4.625677
 O    7.921727    9.197166   10.293696
 O    5.262474    3.987034    2.890504
 O   11.854574    3.987034    3.701596
 O    1.329627    9.197166    9.482604
 O    5.262474    2.605066    9.482604
 O    7.921727   10.579134    3.701596
 O    1.329627   10.579134    2.890504
 O   11.854574    2.605066   10.293696
 O   10.293696    7.921727    9.197166
 O    2.890504    5.262474    3.987034
 O    3.701596   11.854574    3.987034
 O    9.482604    1.329627    9.197166
 O    9.482604    5.262474    2.605066
 O    3.701596    7.921727   10.579134
 O    2.890504    1.329627   10.579134
 O   10.293696   11.854574    2.605066
 O    9.197166   10.293696    7.921727
 O    3.987034    2.890504    5.262474
 O    3.987034    3.701596   11.854574
 O    9.197166    9.482604    1.329627
 O    2.605066    9.482604    5.262474
 O   10.579134    3.701596    7.921727
 O   10.579134    2.890504    1.329627
 O    2.605066   10.293696   11.854574
 O    5.901116   11.217776    6.186554
 O    7.283084    1.966424    6.997646
 O    0.690984    1.966424   12.778654
 O   12.493217   11.217776    0.405547
 O   12.493217    8.558524    6.997646
 O    0.690984    4.625677    6.186554
 O    7.283084    4.625677    0.405547
 O    5.901116    8.558524   12.778654
 O    4.625677    0.405547    7.283084
 O    8.558524   12.778654    5.901116
 O    8.558524    6.997646   12.493217
 O    4.625677    6.186554    0.690984
 O    1.966424   12.778654    0.690984
 O   11.217776    0.405547   12.493217
 O   11.217776    6.186554    5.901116
 O    1.966424    6.997646    7.283084
 O    6.997646   12.493217    8.558524
 O    6.186554    0.690984    4.625677
 O    0.405547    7.283084    4.625677
 O   12.778654    5.901116    8.558524
 O    6.186554    5.901116   11.217776
 O    6.997646    7.283084    1.966424
 O   12.778654    0.690984    1.966424
 O    0.405547   12.493217   11.217776
